**OPAMP
V1 1 0 1 
R1 1 2 10k
E1 3 0 0 2 1e8
C3 2 3 10n
R2 2 3 100k


.AC DEC 10 1 10k
.END